/*--------------------------------*- C++ -*----------------------------------*\
| =========                 |                                                 |
| \\      /  F ield         | OpenFOAM: The Open Source CFD Toolbox           |
|  \\    /   O peration     | Version:  6                                     |
|   \\  /    A nd           | Web:      www.OpenFOAM.com                      |
|    \\/     M anipulation  |                                                 |
\*---------------------------------------------------------------------------*/
FoamFile
{
    version     2.0;
    format      ascii;
    class       dictionary;
    object      controlDict;
}
// * * * * * * * * * * * * * * * * * * * * * * * * * * * * * * * * * * * * * //

application     icoFoam;

startFrom       startTime;
//startFrom       latestTime;

startTime       0;

stopAt          endTime;
//stopAt	  writeNow;

endTime         351;

deltaT          0.05;

writeControl    runTime;

writeInterval   1;

purgeWrite      0;

writeFormat     ascii;

writePrecision  8;

writeCompression off;

timeFormat      general;

timePrecision   6;

runTimeModifiable true;

// ************************************************************************* //

functions
{

///////////////////////////////////////////////////////////////////////////
    inMassFlow
    {
        type            surfaceFieldValue;

        functionObjectLibs ("libfieldFunctionObjects.so");
        enabled         true;

//        writeControl     outputTime;
	writeControl   timeStep;
	writeInterval  1;

        log             true;

        writeFields     false;

        regionType          patch;
        name      inlet;

	operation       sum;
        fields
        (
            phi
        );
    }
///////////////////////////////////////////////////////////////////////////

///////////////////////////////////////////////////////////////////////////
    outMassFlow
    {
        type            surfaceFieldValue;

        functionObjectLibs ("libfieldFunctionObjects.so");
        enabled         true;

	//writeControl     outputTime;

	writeControl   timeStep;
	writeInterval  1;

        log             yes;

        writeFields     false;

	//writeFields     true;
	//surfaceFormat   raw;

        regionType          patch;
        name      outlet;

	operation       sum;
        fields
        (
            phi
        );
    }
///////////////////////////////////////////////////////////////////////////
scalar1
	{
	type            scalarTransport;
	functionObjectLibs ("libsolverFunctionObjects.so");
	enabled true;
	writeControl outputTime; // write scalar field results
	
	field s; //name of scalar field
	nCorr 1; //number of corrector loop
	D 0.001; //difussion coefficient
//    schemesField U;  // Name of field to use when looking up schemes from fvSchemes

	log yes;
	}

/////////////////////////////////////////////////////////////////////////////////


};
